/*--------------------------------*- C++ -*----------------------------------*\
| =========                 |                                                 |
| \\      /  F ield         | OpenFOAM: The Open Source CFD Toolbox           |
|  \\    /   O peration     | Version:  v2006                                 |
|   \\  /    A nd           | Website:  www.openfoam.com                      |
|    \\/     M anipulation  |                                                 |
\*---------------------------------------------------------------------------*/
FoamFile
{
    version     2.0;
    format      ascii;
    class       volScalarField;
    object      p_rgh;
}
// * * * * * * * * * * * * * * * * * * * * * * * * * * * * * * * * * * * * * //

dimensions      [1 -1 -2 0 0 0 0];

internalField   uniform 1e5;

boundaryField
{
    left
    {
        type            symmetryPlane;
    }

    wall
    {
        type            waveTransmissive;
        field           p_rgh;
        phi             phi;
        rho             rho;
        fieldInf        101325;
        gamma           7.15;
        lInf            0;
        value           uniform 101325;
        correctSupercritical false;
    }

    front
    {
        type            wedge;
    }

    back
    {
        type            wedge;
    }

    outside
    {
        type            waveTransmissive;
        field           p_rgh;
        phi             phi;
        rho             rho;
        fieldInf        101325;
        gamma           7.15;
        lInf            0;
        value           uniform 101325;
        correctSupercritical false;
    }

    defaultFaces
    {
        type            empty;
    }
}

// ************************************************************************* //
